LTspice 24.1.9 for Windows
Circuit: C:\Users\eleme\Desktop\bird-feeder\sym\esp_out.net
Start Time: Tue Oct 28 12:21:04 2025
C:\Users\eleme\Desktop\bird-feeder\sym\IRLML2502.txt(10): Ignoring unknown model parameter. This may or may not be a problem.
+ RS = 0.05###> + CGS = 7.4E-10<###
C:\Users\eleme\Desktop\bird-feeder\sym\IRLML2502.txt(11): Ignoring unknown model parameter. This may or may not be a problem.
+ CGS = 7.4E-10###> + CGD = 9.0E-11<###
solver = Normal
Maximum thread count: 8
tnom = 27
temp = 27
method = trap
C:\Users\eleme\Desktop\bird-feeder\sym\esp_out.net(4): Limiting rise time to 0.1.

V4 N003 0 PULSE(0 3.3 0 0 0 1 3)
^^^^^^^^^^^^^^^^^^^^^^^^^^^^^^^^
C:\Users\eleme\Desktop\bird-feeder\sym\esp_out.net(4): Limiting fall time to 0.1.

V4 N003 0 PULSE(0 3.3 0 0 0 1 3)
^^^^^^^^^^^^^^^^^^^^^^^^^^^^^^^^
Direct Newton iteration for .op point succeeded.
Total elapsed time: 0.191 seconds.

Files loaded:
C:\Users\eleme\Desktop\bird-feeder\sym\esp_out.net
C:\Users\eleme\AppData\Local\LTspice\lib\cmp\standard.mos
C:\Users\eleme\Desktop\bird-feeder\sym\SS34.txt
C:\Users\eleme\Desktop\bird-feeder\sym\IRLML2502.txt

