LTspice 24.1.10 for Windows
Circuit: C:\Users\eleme\Desktop\karmnik\bird-feeder\sym\komparator.net
Start Time: Sat Jan  3 21:01:15 2026
solver = Normal
Maximum thread count: 16
tnom = 27
temp = 27
method = trap
Direct Newton iteration for .op point succeeded.
.step 
Total elapsed time: 0.092 seconds.

Files loaded:
C:\Users\eleme\Desktop\karmnik\bird-feeder\sym\komparator.net
C:\Users\eleme\AppData\Local\LTspice\lib\cmp\standard.dio
C:\Users\eleme\AppData\Local\LTspice\lib\sub\UniversalOpAmp2.lib

