LTspice 24.1.10 for Windows
Circuit: C:\Users\eleme\Desktop\karmnik\bird-feeder\sym\prund.net
Start Time: Wed Oct 29 16:42:00 2025
solver = Normal
Maximum thread count: 16
tnom = 27
temp = 27
method = trap
Direct Newton iteration for .op point succeeded.
Total elapsed time: 3.680 seconds.

Files loaded:
C:\Users\eleme\Desktop\karmnik\bird-feeder\sym\prund.net
C:\Users\eleme\AppData\Local\LTspice\lib\cmp\standard.dio
C:\Users\eleme\AppData\Local\LTspice\lib\cmp\standard.mos
C:\Users\eleme\AppData\Local\LTspice\lib\sub\NE555.sub

