LTspice 24.1.9 for Windows
Circuit: C:\Users\eleme\Desktop\bird-feeder\sym\prund.net
Start Time: Tue Oct 28 17:45:02 2025
solver = Normal
Maximum thread count: 8
tnom = 27
temp = 27
method = trap
Direct Newton iteration for .op point succeeded.
Total elapsed time: 4.989 seconds.

Files loaded:
C:\Users\eleme\Desktop\bird-feeder\sym\prund.net
C:\Users\eleme\AppData\Local\LTspice\lib\cmp\standard.dio
C:\Users\eleme\AppData\Local\LTspice\lib\cmp\standard.mos
C:\Users\eleme\AppData\Local\LTspice\lib\sub\NE555.sub

