Circuit: * C:\Users\eleme\Desktop\karmnik\sym.asc

WARNING: Less than two connections to node N003.  This node is used by D2.
Direct Newton iteration for .op point succeeded.

Date: Sun Oct 19 16:00:45 2025
Total elapsed time: 0.042 seconds.

tnom = 27
temp = 27
method = modified trap
totiter = 2114
traniter = 2106
tranpoints = 1054
accept = 1052
rejected = 2
matrix size = 6
fillins = 0
solver = Normal
Matrix Compiler1: 254 bytes object code size  0.4/0.1/[0.0]
Matrix Compiler2:      34 opcodes  0.1/[0.1]/0.1


